#### CIF created by Crystallographica 2 ####

data_ce5co4ge13

_audit_creation_method                    'Crystallographica 2' 
_cell_angle_alpha                         90 
_cell_angle_beta                          90 
_cell_angle_gamma                         90 
_cell_formula_units_Z                     2 
_cell_length_a                            4.265 
_cell_length_b                            45.175 
_cell_length_c                            4.293 
_cell_volume                              827.138 
_cgraph_comments                         'chemical_name_common: Cerium cobalt germanide
chemical_compound_source: synthesised by authors, see text'
_cgraph_title                             ce5co4ge13 
_chemical_formula_sum                    'Ce5 Co4 Ge13'
_symmetry_space_group_name_H-M           'C m m m'
_symmetry_space_group_name_Hall          '-C 2 2'

loop_
        _symmetry_equiv_pos_as_xyz
        'x, y, z'
        'x+1/2, y+1/2, z'
        '-x, -y, -z'
        '-x+1/2, -y+1/2, -z'
        '-x, -y, z'
        '-x+1/2, -y+1/2, z'
        'x, y, -z'
        'x+1/2, y+1/2, -z'
        'x, -y, -z'
        'x+1/2, -y+1/2, -z'
        '-x, y, z'
        '-x+1/2, y+1/2, z'
        '-x, y, -z'
        '-x+1/2, y+1/2, -z'
        'x, -y, z'
        'x+1/2, -y+1/2, z'

loop_
        _atom_site_label
        _atom_site_type_symbol
        _atom_site_fract_x
        _atom_site_fract_y
        _atom_site_fract_z
        _atom_site_U_iso_or_equiv
        _atom_site_thermal_displace_type
        _atom_site_occupancy
        Ce1 Ce 0 0.393708 0.5 0.00716 Uani 1
        Ce2 Ce 0 0.212478 0 0.00721 Uani 1
        Ce3 Ce 0 0 0 0.0068 Uani 1
        Co1 Co 0 0.3195 0.5 0.0061 Uani 1
        Co2 Co 0 0.07067 0 0.0115 Uani 1
        Ge1 Ge 0 0.04975 0.5 0.0125 Uani 1
        Ge2 Ge 0 0.15874 0.5 0.0078 Uani 1
        Ge3 Ge 0 0.26692 0.5 0.0072 Uani 1
        Ge4 Ge 0 0.12104 0 0.0107 Uani 1
        Ge5 Ge 0 0.3411 0 0.0079 Uani 1
        Ge6 Ge 0 0.45018 0 0.0141 Uani 1
        Ge7 Ge 0.5 0 0.5 0.026 Uani 1

loop_
        _atom_site_aniso_label
        _atom_site_aniso_U_11
        _atom_site_aniso_U_22
        _atom_site_aniso_U_33
        _atom_site_aniso_U_12
        _atom_site_aniso_U_13
        _atom_site_aniso_U_23
        Ce1 8.6123e-005 9.62551e-005 8.99226e-005 0 0 0
        Ce2 8.48565e-005 9.87882e-005 9.11891e-005 0 0 0
        Ce3 8.359e-005 8.359e-005 9.11891e-005 0 0 0
        Co1 6.71253e-005 8.73895e-005 7.72574e-005 0 0 0
        Co2 0.000140583 0.000143116 0.000153248 0 0 0
        Ge1 0.000206442 0.000157048 0.000111453 0 0 0
        Ge2 5.95262e-005 0.000115253 0.000121585 0 0 0
        Ge3 7.47244e-005 7.47244e-005 0.000121585 0 0 0
        Ge4 0.000105121 0.000178579 0.000125385 0 0 0
        Ge5 0.000119052 0.000110187 7.34579e-005 0 0 0
        Ge6 0.000117786 0.000191244 0.00022544 0 0 0
        Ge7 0.000131718 0.000721913 0.000140583 0 0 0

_eof

#### End of Crystallographic Information File ####
